*version 8.0 863803967
u 95
U? 3
V? 4
R? 3
? 4
@libraries
@analysis
.AC 1 1 0
+0 1001
+1 100k
+2 10000k
.TRAN 0 0 0 0
+0 20ns
+1 1000ns
@targets
@attributes
@translators
a 0 u 13 0 0 0 hln 100 TANGO=PCB
a 0 u 13 0 0 0 hln 100 SCICARDS=PCB
a 0 u 13 0 0 0 hln 100 PROTEL=PCB
a 0 u 13 0 0 0 hln 100 PCBOARDS=PCB
a 0 u 13 0 0 0 hln 100 PCAD=PCB
a 0 u 13 0 0 0 hln 100 PADS=PCB
a 0 u 13 0 0 0 hln 100 ORCAD=PCB
a 0 u 13 0 0 0 hln 100 EDIF=PCB
a 0 u 13 0 0 0 hln 100 CADSTAR=PCB
a 0 u 13 0 0 0 hln 100 PSPICE=PSPICE
a 0 u 13 0 0 0 hln 100 XILINX=XILINX
@setup
unconnectedPins 0
connectViaLabel 0
connectViaLocalLabels 0
NoStim4ExtIFPortsWarnings 1
AutoGenStim4ExtIFPorts 1
@index
pageloc 1 0 4274 
@status
n 0 112:04:21:15:43:17;1337607797 e 
s 0 112:04:21:15:43:20;1337607800 e 
c 112:04:21:19:23:15;1337620995
*page 1 0 970 720 iA
@ports
port 7 GND_ANALOG 670 240 h
port 30 GND_ANALOG 530 300 h
port 29 GND_ANALOG 260 310 h
port 87 GND_ANALOG 900 320 h
@parts
part 3 vdc 630 190 h
a 0 sp 0 0 22 37 hln 100 PART=vdc
a 0 a 0:13 0 0 0 hln 100 PKGREF=V1
a 1 ap 9 0 24 7 hcn 100 REFDES=V1
a 1 u 13 0 -11 18 hcn 100 DC=12V
part 5 r 530 240 d
a 0 u 13 0 15 40 hln 100 VALUE=20k
a 0 sp 0 0 0 10 hlb 100 PART=r
a 0 s 0:13 0 0 0 hln 100 PKGTYPE=RC05
a 0 s 0:13 0 0 0 hln 100 GATE=
a 0 a 0:13 0 0 0 hln 100 PKGREF=R1
a 0 ap 9 0 15 0 hln 100 REFDES=R1
part 6 vdc 630 250 h
a 0 sp 0 0 22 37 hln 100 PART=vdc
a 1 u 13 0 -11 18 hcn 100 DC=12V
a 0 a 0:13 0 0 0 hln 100 PKGREF=V3
a 1 ap 9 0 24 7 hcn 100 REFDES=V3
part 2 LM324 380 200 h
a 0 sp 11 0 14 70 hcn 100 PART=LM324
a 0 s 0:13 0 0 0 hln 100 PKGTYPE=DIP14
a 0 s 0:13 0 0 0 hln 100 GATE=A
a 0 a 0:13 0 0 0 hln 100 PKGREF=U1
a 0 ap 9 0 56 8 hcn 100 REFDES=U1A
part 4 vac 260 230 h
a 0 sp 0 0 0 50 hln 100 PART=vac
a 0 a 0:13 0 0 0 hln 100 PKGREF=V2
a 1 ap 9 0 20 10 hcn 100 REFDES=V2
a 0 u 13 0 -9 23 hcn 100 ACMAG=1V
part 86 r 900 260 d
a 0 sp 0 0 0 10 hlb 100 PART=r
a 0 s 0:13 0 0 0 hln 100 PKGTYPE=RC05
a 0 s 0:13 0 0 0 hln 100 GATE=
a 0 u 13 0 15 40 hln 100 VALUE=20k
a 0 a 0:13 0 0 0 hln 100 PKGREF=R2
a 0 ap 9 0 15 0 hln 100 REFDES=R2
part 59 LM324 730 230 h
a 0 sp 11 0 14 70 hcn 100 PART=LM324
a 0 s 0:13 0 0 0 hln 100 PKGTYPE=DIP14
a 0 s 0:13 0 0 0 hln 100 GATE=A
a 0 a 0:13 0 0 0 hln 100 PKGREF=U2
a 0 ap 9 0 56 8 hcn 100 REFDES=U2A
a 0 sp 0 0 50 60 hcn 100 MODEL=LM324/NS
part 1 titleblk 970 720 h
a 1 s 13 0 350 10 hcn 100 PAGESIZE=A
a 1 s 13 0 180 60 hcn 100 PAGETITLE=
a 1 s 13 0 300 95 hrn 100 PAGENO=1
a 1 s 13 0 340 95 hrn 100 PAGECOUNT=1
part 58 nodeMarker 530 220 h
a 0 s 0 0 0 0 hln 100 PROBEVAR=
a 0 a 0 0 4 22 hlb 100 LABEL=2
part 56 nodeMarker 310 200 h
a 0 s 0 0 0 0 hln 100 PROBEVAR=
a 0 a 0 0 4 22 hlb 100 LABEL=1
part 93 nodeMarker 870 250 h
a 0 s 0 0 0 0 hln 100 PROBEVAR=
a 0 a 0 0 4 22 hlb 100 LABEL=3
@conn
w 9
s 670 240 630 240 8
s 630 230 630 240 10
s 630 240 630 250 12
w 32
a 0 up 0:33 0 0 0 hln 100 V=
s 530 280 530 300 31
a 0 up 33 0 532 290 hlt 100 V=
w 45
a 0 up 0:33 0 0 0 hln 100 V=
s 260 270 260 310 48
a 0 up 33 0 262 290 hlt 100 V=
w 14
a 0 up 0:33 0 0 0 hln 100 V=
s 530 240 530 220 13
s 530 220 480 220 15
s 480 220 460 220 35
s 480 220 480 270 33
s 480 270 370 270 36
a 0 up 33 0 425 269 hct 100 V=
s 370 270 370 240 38
s 370 240 380 240 40
w 18
a 0 up 0:33 0 0 0 hln 100 V=
s 630 190 630 110 17
s 630 110 420 110 19
a 0 up 33 0 525 109 hct 100 V=
s 420 110 420 190 21
s 770 220 770 110 70
s 770 110 630 110 72
w 75
a 0 up 0:33 0 0 0 hln 100 V=
s 770 280 770 350 74
s 420 250 420 350 23
s 420 350 630 350 25
a 0 up 33 0 525 349 hct 100 V=
s 630 350 630 290 27
s 770 350 630 350 76
w 79
a 0 up 0:33 0 0 0 hln 100 V=
s 730 230 730 80 78
s 730 80 260 80 80
s 260 200 260 230 53
s 260 200 310 200 42
s 310 200 380 200 57
a 0 up 33 0 345 199 hct 100 V=
s 260 80 260 200 82
w 85
a 0 up 0:33 0 0 0 hln 100 V=
s 900 300 900 320 84
a 0 up 33 0 902 310 hlt 100 V=
w 61
a 0 up 0:33 0 0 0 hln 100 V=
s 810 250 840 250 60
s 840 250 840 320 62
s 840 320 720 320 64
a 0 up 33 0 780 319 hct 100 V=
s 720 320 720 270 66
s 720 270 730 270 68
s 900 260 900 250 88
s 900 250 870 250 90
s 870 250 840 250 94
@junction
j 670 240
+ s 7
+ w 9
j 630 230
+ p 3 -
+ w 9
j 630 250
+ p 6 +
+ w 9
j 630 240
+ w 9
+ w 9
j 530 240
+ p 5 1
+ w 14
j 460 220
+ p 2 OUT
+ w 14
j 630 190
+ p 3 +
+ w 18
j 420 190
+ p 2 V+
+ w 18
j 530 280
+ p 5 2
+ w 32
j 530 300
+ s 30
+ w 32
j 480 220
+ w 14
+ w 14
j 380 240
+ p 2 -
+ w 14
j 260 270
+ p 4 -
+ w 45
j 260 310
+ s 29
+ w 45
j 530 220
+ p 58 pin1
+ w 14
j 630 110
+ w 18
+ w 18
j 420 250
+ p 2 V-
+ w 75
j 630 290
+ p 6 -
+ w 75
j 630 350
+ w 75
+ w 75
j 380 200
+ p 2 +
+ w 79
j 260 230
+ p 4 +
+ w 79
j 310 200
+ p 56 pin1
+ w 79
j 260 200
+ w 79
+ w 79
j 900 300
+ p 86 2
+ w 85
j 900 320
+ s 87
+ w 85
j 900 260
+ p 86 1
+ w 61
j 840 250
+ w 61
+ w 61
j 870 250
+ p 93 pin1
+ w 61
j 810 250
+ p 59 OUT
+ w 61
j 730 270
+ p 59 -
+ w 61
j 770 220
+ p 59 V+
+ w 18
j 770 280
+ p 59 V-
+ w 75
j 730 230
+ p 59 +
+ w 79
@attributes
a 0 s 0:13 0 0 0 hln 100 PAGETITLE=
a 0 s 0:13 0 0 0 hln 100 PAGENO=1
a 0 s 0:13 0 0 0 hln 100 PAGESIZE=A
a 0 s 0:13 0 0 0 hln 100 PAGECOUNT=1
@graphics
