
.MODEL PMOS PMOS LEVEL=1 VTO=-1 KP=12u GAMMA=0.5 LAMBDA=0.033 PHI=0.6 
+ TOX=57.5n UO=200 CJ=0.2m MJ=0.5 PB=0.8 JS=20u RSH=50 CGSO=500p CGDO=500p 
*$
