*version 8.0 15761463
u 510
DSTM? 3
U? 20
? 45
@libraries
@analysis
.TRAN 1 0 1 0
+0 20ns
+1 20us
.OPT 0 0 0 0 0 0 0 0 0 0 0 0 0 0 0
DIGINITSTATE 0
DIGMNTYMX 2
@targets
@attributes
@translators
a 0 u 13 0 0 0 hln 100 TANGO=PCB
a 0 u 13 0 0 0 hln 100 SCICARDS=PCB
a 0 u 13 0 0 0 hln 100 PROTEL=PCB
a 0 u 13 0 0 0 hln 100 PCBOARDS=PCB
a 0 u 13 0 0 0 hln 100 PCAD=PCB
a 0 u 13 0 0 0 hln 100 PADS=PCB
a 0 u 13 0 0 0 hln 100 ORCAD=PCB
a 0 u 13 0 0 0 hln 100 EDIF=PCB
a 0 u 13 0 0 0 hln 100 CADSTAR=PCB
a 0 u 13 0 0 0 hln 100 PSPICE=PSPICE
a 0 u 13 0 0 0 hln 100 XILINX=XILINX
@setup
unconnectedPins 0
connectViaLabel 0
connectViaLocalLabels 0
NoStim4ExtIFPortsWarnings 1
AutoGenStim4ExtIFPorts 1
@index
pageloc 1 0 10140 
@status
n 0 112:06:02:20:30:02;1341253802 e 
s 2832 112:06:02:20:30:02;1341253802 e 
*page 1 0 970 720 iA
@ports
port 44 LO 270 160 h
port 45 LO 270 170 h
port 247 HI 620 320 v
@parts
part 39 74293 280 130 h
a 0 sp 11 0 40 70 hln 100 PART=74293
a 0 s 0:13 0 0 0 hln 100 PKGTYPE=DIP14
a 0 s 0:13 0 0 0 hln 100 GATE=
a 0 a 0:13 0 0 0 hln 100 PKGREF=U2
a 0 ap 9 0 40 -2 hln 100 REFDES=U2
part 37 DigClock 270 130 h
a 0 a 0:13 0 0 0 hln 100 PKGREF=DSTM1
a 1 ap 9 0 0 -2 hln 100 REFDES=DSTM1
part 85 74176 590 220 h
a 0 sp 11 0 40 98 hln 100 PART=74176
a 0 s 0:13 0 0 0 hln 100 PKGTYPE=DIP14
a 0 s 0:13 0 0 0 hln 100 GATE=
a 0 a 0:13 0 0 0 hln 100 PKGREF=U4
a 0 ap 9 0 40 -2 hln 100 REFDES=U4
part 230 7420 410 130 h
a 0 sp 11 0 40 50 hln 100 PART=7420
a 0 s 0:13 0 0 0 hln 100 PKGTYPE=DIP14
a 0 s 0:13 0 0 0 hln 100 GATE=A
a 0 a 0:13 0 0 0 hln 100 PKGREF=U7
a 0 ap 9 0 40 0 hln 100 REFDES=U7A
part 348 DigClock 140 230 h
a 0 u 0 0 0 20 hln 100 ONTIME=1uS
a 0 u 0 0 0 30 hln 100 OFFTIME=1uS
a 0 a 0:13 0 0 0 hln 100 PKGREF=DSTM2
a 1 ap 9 0 0 -2 hln 100 REFDES=DSTM2
part 467 7404 150 230 h
a 0 sp 11 0 40 40 hln 100 PART=7404
a 0 s 0:13 0 0 0 hln 100 PKGTYPE=SO14
a 0 s 0:13 0 0 0 hln 100 GATE=A
a 0 a 0:13 0 0 0 hln 100 PKGREF=U15
a 0 ap 9 0 28 8 hln 100 REFDES=U15A
part 468 7404 210 230 h
a 0 sp 11 0 40 40 hln 100 PART=7404
a 0 s 0:13 0 0 0 hln 100 PKGTYPE=SO14
a 0 s 0:13 0 0 0 hln 100 GATE=A
a 0 a 0:13 0 0 0 hln 100 PKGREF=U16
a 0 ap 9 0 28 8 hln 100 REFDES=U16A
part 84 74293 280 230 h
a 0 sp 11 0 40 70 hln 100 PART=74293
a 0 s 0:13 0 0 0 hln 100 PKGTYPE=DIP14
a 0 s 0:13 0 0 0 hln 100 GATE=
a 0 a 0:13 0 0 0 hln 100 PKGREF=U3
a 0 ap 9 0 40 -2 hln 100 REFDES=U3
part 353 7404 350 60 h
a 0 sp 11 0 40 40 hln 100 PART=7404
a 0 s 0:13 0 0 0 hln 100 PKGTYPE=SO14
a 0 s 0:13 0 0 0 hln 100 GATE=A
a 0 a 0:13 0 0 0 hln 100 PKGREF=U11
a 0 ap 9 0 28 8 hln 100 REFDES=U11A
part 352 7404 280 60 h
a 0 sp 11 0 40 40 hln 100 PART=7404
a 0 s 0:13 0 0 0 hln 100 PKGTYPE=SO14
a 0 s 0:13 0 0 0 hln 100 GATE=A
a 0 a 0:13 0 0 0 hln 100 PKGREF=U10
a 0 ap 9 0 28 8 hln 100 REFDES=U10A
part 491 7432 500 130 h
a 0 sp 11 0 40 50 hln 100 PART=7432
a 0 s 0:13 0 0 0 hln 100 PKGTYPE=DIP14
a 0 s 0:13 0 0 0 hln 100 GATE=A
a 0 a 0:13 0 0 0 hln 100 PKGREF=U17
a 0 ap 9 0 40 0 hln 100 REFDES=U17A
part 366 7402 500 80 h
a 0 sp 11 0 40 50 hln 100 PART=7402
a 0 s 0:13 0 0 0 hln 100 PKGTYPE=DIP14
a 0 s 0:13 0 0 0 hln 100 GATE=A
a 0 a 0:13 0 0 0 hln 100 PKGREF=U14
a 0 ap 9 0 40 0 hln 100 REFDES=U14A
part 501 7404 590 90 h
a 0 sp 11 0 40 40 hln 100 PART=7404
a 0 s 0:13 0 0 0 hln 100 PKGTYPE=SO14
a 0 s 0:13 0 0 0 hln 100 GATE=A
a 0 a 0:13 0 0 0 hln 100 PKGREF=U18
a 0 ap 9 0 28 8 hln 100 REFDES=U18A
part 502 7404 650 90 h
a 0 sp 11 0 40 40 hln 100 PART=7404
a 0 s 0:13 0 0 0 hln 100 PKGTYPE=SO14
a 0 s 0:13 0 0 0 hln 100 GATE=A
a 0 a 0:13 0 0 0 hln 100 PKGREF=U19
a 0 ap 9 0 28 8 hln 100 REFDES=U19A
part 1 titleblk 970 720 h
a 1 s 13 0 350 10 hcn 100 PAGESIZE=A
a 1 s 13 0 180 60 hcn 100 PAGETITLE=
a 1 s 13 0 300 95 hrn 100 PAGENO=1
a 1 s 13 0 340 95 hrn 100 PAGECOUNT=1
part 309 nodeMarker 390 110 h
a 0 s 0 0 0 0 hln 100 PROBEVAR=
a 0 a 0 0 4 22 hlb 100 LABEL=28
part 310 nodeMarker 390 280 h
a 0 s 0 0 0 0 hln 100 PROBEVAR=
a 0 a 0 0 4 22 hlb 100 LABEL=29
part 323 nodeMarker 360 130 h
a 0 s 0 0 0 0 hln 100 PROBEVAR=
a 0 a 0 0 4 22 hlb 100 LABEL=30
part 325 nodeMarker 360 140 h
a 0 s 0 0 0 0 hln 100 PROBEVAR=
a 0 a 0 0 4 22 hlb 100 LABEL=31
part 327 nodeMarker 360 150 h
a 0 s 0 0 0 0 hln 100 PROBEVAR=
a 0 a 0 0 4 22 hlb 100 LABEL=32
part 329 nodeMarker 360 160 h
a 0 s 0 0 0 0 hln 100 PROBEVAR=
a 0 a 0 0 4 22 hlb 100 LABEL=33
part 331 nodeMarker 360 230 h
a 0 s 0 0 0 0 hln 100 PROBEVAR=
a 0 a 0 0 4 22 hlb 100 LABEL=34
part 279 nodeMarker 690 200 h
a 0 s 0 0 0 0 hln 100 PROBEVAR={Q[3:0]}
a 0 a 0 0 4 22 hlb 100 LABEL=27
part 339 nodeMarker 660 230 h
a 0 s 0 0 0 0 hln 100 PROBEVAR=Q0
a 0 a 0 0 4 22 hlb 100 LABEL=38
part 341 nodeMarker 660 240 h
a 0 s 0 0 0 0 hln 100 PROBEVAR=Q1
a 0 a 0 0 4 22 hlb 100 LABEL=39
part 343 nodeMarker 660 250 h
a 0 s 0 0 0 0 hln 100 PROBEVAR=Q2
a 0 a 0 0 4 22 hlb 100 LABEL=40
part 345 nodeMarker 660 260 h
a 0 s 0 0 0 0 hln 100 PROBEVAR=Q3
a 0 a 0 0 4 22 hlb 100 LABEL=41
part 333 nodeMarker 360 240 h
a 0 s 0 0 0 0 hln 100 PROBEVAR=Qb1
a 0 a 0 0 4 22 hlb 100 LABEL=35
part 335 nodeMarker 360 250 h
a 0 s 0 0 0 0 hln 100 PROBEVAR=Qb2
a 0 a 0 0 4 22 hlb 100 LABEL=36
part 337 nodeMarker 360 260 h
a 0 s 0 0 0 0 hln 100 PROBEVAR=Qb3
a 0 a 0 0 4 22 hlb 100 LABEL=37
part 481 nodeMarker 580 160 h
a 0 s 0 0 0 0 hln 100 PROBEVAR=
a 0 a 0 0 4 22 hlb 100 LABEL=43
part 509 nodeMarker 730 90 h
a 0 s 0 0 0 0 hln 100 PROBEVAR=
a 0 a 0 0 4 22 hlb 100 LABEL=44
@conn
w 11
s 270 160 280 160 10
w 13
s 270 170 280 170 12
w 306
a 0 sr 3 0 365 138 hcn 100 LABEL=Qa[1]
s 360 140 410 140 326
a 0 sr 3 0 365 138 hcn 100 LABEL=Qa[1]
s 340 140 360 140 94
w 193
a 0 sr 0 0 0 0 hln 100 LABEL=Qa[2]
s 360 150 400 150 328
a 0 sr 3 0 365 148 hcn 100 LABEL=Qa[2]
s 340 150 360 150 235
s 400 150 400 160 237
s 400 160 410 160 239
w 269
a 0 sr 0 0 0 0 hln 100 LABEL=Qa[3]
s 360 160 390 160 330
a 0 sr 3 0 365 158 hcn 100 LABEL=Qa[3]
s 340 160 360 160 241
s 390 160 390 170 243
s 390 170 410 170 245
w 76
a 0 sr 0 0 0 0 hln 100 LABEL=Qa[0]
s 360 130 410 130 324
a 0 sr 3 0 365 128 hcn 100 LABEL=Qa[0]
s 350 130 360 130 299
s 280 140 200 140 75
s 200 140 200 100 77
s 200 100 350 100 79
s 350 130 340 130 68
s 350 100 350 130 81
w 74
s 270 130 280 130 73
s 270 130 270 60 357
s 270 60 280 60 359
w 143
a 0 sr 0 0 0 0 hln 100 LABEL=Qb[1]
s 590 240 360 240 221
a 0 sr 3 0 410 238 hcn 100 LABEL=Qb[1]
s 360 240 340 240 334
w 91
a 0 sr 0 0 0 0 hln 100 LABEL=Qb[2]
s 590 250 360 250 223
a 0 sr 3 0 410 248 hcn 100 LABEL=Qb[2]
s 360 250 340 250 336
w 93
a 0 sr 0 0 0 0 hln 100 LABEL=Qb[3]
s 590 260 360 260 225
a 0 sr 3 0 410 258 hcn 100 LABEL=Qb[3]
s 360 260 340 260 338
w 87
a 0 sr 0 0 0 0 hln 100 LABEL=Qb[0]
s 390 230 360 230 303
a 0 sr 3 0 365 228 hcn 100 LABEL=Qb[0]
s 350 210 270 210 137
s 270 210 270 240 139
s 270 240 280 240 141
s 350 230 340 230 146
s 350 210 350 230 144
s 360 230 350 230 332
s 590 230 390 230 419
w 249
s 620 320 620 310 248
w 261
a 0 sr 0 0 0 0 hln 100 LABEL=Q[0]
s 660 230 690 230 340
a 0 sr 3 0 670 228 hcn 100 LABEL=Q[0]
s 650 230 660 230 260
w 258
a 0 sr 0 0 0 0 hln 100 LABEL=Q[1]
s 660 240 690 240 342
a 0 sr 3 0 670 238 hcn 100 LABEL=Q[1]
s 650 240 660 240 257
w 255
a 0 sr 0 0 0 0 hln 100 LABEL=Q[2]
s 660 250 690 250 344
a 0 sr 3 0 670 248 hcn 100 LABEL=Q[2]
s 650 250 660 250 254
w 253
a 0 sr 0 0 0 0 hln 100 LABEL=Q[3]
s 660 260 690 260 346
a 0 sr 3 0 670 258 hcn 100 LABEL=Q[3]
s 650 260 660 260 252
w 470
s 140 230 150 230 469
w 472
s 200 230 210 230 471
w 474
s 260 230 280 230 473
w 451
s 490 80 500 80 454
s 490 80 490 30 484
s 490 30 340 30 486
s 330 60 340 60 361
s 340 60 350 60 490
s 340 30 340 60 488
w 444
s 480 150 490 150 443
s 490 150 500 150 447
s 490 150 490 100 445
s 490 100 500 100 448
w 438
s 570 140 580 140 437
s 580 140 580 160 439
s 580 220 590 220 441
s 580 160 580 220 482
w 457
s 500 130 480 130 456
s 480 130 480 60 458
s 480 60 400 60 460
w 504
s 570 90 590 90 503
w 506
s 640 90 650 90 505
w 318
s 260 370 260 270 276
s 260 270 280 270 162
s 730 370 260 370 274
s 730 370 730 90 415
s 260 270 260 260 475
s 260 260 280 260 477
s 700 90 730 90 507
b 305
a 0 sr 0:3 0 392 120 hln 100 LABEL=Qa[3-0]
s 390 160 390 110 304
a 0 sr 3 0 392 120 hln 100 LABEL=Qa[3-0]
b 302
a 0 sr 0 0 0 0 hln 100 LABEL=Qb[3-0]
s 390 230 390 280 301
a 0 sr 3 0 392 280 hln 100 LABEL=Qb[3-0]
b 251
a 0 sr 0:3 0 602 210 hln 100 LABEL=Q[3-0]
s 690 230 690 200 430
a 0 sr 3 0 692 210 hln 100 LABEL=Q[3-0]
s 690 260 690 250 250
s 690 200 690 190 280
s 690 240 690 230 432
s 690 250 690 240 434
@junction
j 280 160
+ p 39 R01
+ w 11
j 280 170
+ p 39 R02
+ w 13
j 270 160
+ s 44
+ w 11
j 270 170
+ s 45
+ w 13
j 280 130
+ p 39 CLKA
+ w 74
j 280 140
+ p 39 CLKB
+ w 76
j 340 130
+ p 39 QA
+ w 76
j 340 160
+ p 39 QD
+ w 269
j 340 140
+ p 39 QB
+ w 306
j 340 150
+ p 39 QC
+ w 193
j 410 140
+ p 230 B
+ w 306
j 410 160
+ p 230 C
+ w 193
j 410 170
+ p 230 D
+ w 269
j 410 130
+ p 230 A
+ w 76
j 350 130
+ w 76
+ w 76
j 390 160
+ w 269
+ b 305
 Qa[3]
j 390 110
+ p 309 pin1
+ b 305
j 280 270
+ p 84 R02
+ w 318
j 360 130
+ p 323 pin1
+ w 76
j 360 140
+ p 325 pin1
+ w 306
j 360 150
+ p 327 pin1
+ w 193
j 360 160
+ p 329 pin1
+ w 269
j 270 130
+ p 37 1
+ w 74
j 280 60
+ p 352 A
+ w 74
j 340 230
+ p 84 QA
+ w 87
j 280 240
+ p 84 CLKB
+ w 87
j 350 230
+ w 87
+ w 87
j 390 230
+ w 87
+ b 302
 Qb[0]
j 360 230
+ p 331 pin1
+ w 87
j 340 260
+ p 84 QD
+ w 93
j 360 260
+ p 337 pin1
+ w 93
j 340 250
+ p 84 QC
+ w 91
j 360 250
+ p 335 pin1
+ w 91
j 340 240
+ p 84 QB
+ w 143
j 360 240
+ p 333 pin1
+ w 143
j 390 280
+ p 310 pin1
+ b 302
j 590 240
+ p 85 B
+ w 143
j 590 250
+ p 85 C
+ w 91
j 590 260
+ p 85 D
+ w 93
j 590 230
+ p 85 A
+ w 87
j 690 200
+ p 279 pin1
+ b 251
j 620 310
+ p 85 \CLR\
+ w 249
j 620 320
+ s 247
+ w 249
j 660 230
+ p 339 pin1
+ w 261
j 690 230
+ w 261
+ b 251
 Q[0]
j 650 230
+ p 85 QA
+ w 261
j 660 240
+ p 341 pin1
+ w 258
j 690 240
+ w 258
+ b 251
 Q[1]
j 650 240
+ p 85 QB
+ w 258
j 660 250
+ p 343 pin1
+ w 255
j 690 250
+ w 255
+ b 251
 Q[2]
j 650 250
+ p 85 QC
+ w 255
j 660 260
+ p 345 pin1
+ w 253
j 690 260
+ w 253
+ b 251
 Q[3]
j 650 260
+ p 85 QD
+ w 253
j 590 220
+ p 85 \LOAD\
+ w 438
j 480 150
+ p 230 Y
+ w 444
j 490 150
+ w 444
+ w 444
j 500 100
+ p 366 B
+ w 444
j 500 80
+ p 366 A
+ w 451
j 400 60
+ p 353 Y
+ w 457
j 140 230
+ p 348 1
+ w 470
j 150 230
+ p 467 A
+ w 470
j 210 230
+ p 468 A
+ w 472
j 200 230
+ p 467 Y
+ w 472
j 280 230
+ p 84 CLKA
+ w 474
j 260 230
+ p 468 Y
+ w 474
j 260 270
+ w 318
+ w 318
j 280 260
+ p 84 R01
+ w 318
j 580 160
+ p 481 pin1
+ w 438
j 350 60
+ p 353 A
+ w 451
j 330 60
+ p 352 Y
+ w 451
j 340 60
+ w 451
+ w 451
j 500 150
+ p 491 B
+ w 444
j 570 140
+ p 491 Y
+ w 438
j 500 130
+ p 491 A
+ w 457
j 570 90
+ p 366 Y
+ w 504
j 590 90
+ p 501 A
+ w 504
j 650 90
+ p 502 A
+ w 506
j 640 90
+ p 501 Y
+ w 506
j 700 90
+ p 502 Y
+ w 318
j 730 90
+ p 509 pin1
+ w 318
@attributes
a 0 s 0:13 0 0 0 hln 100 PAGETITLE=
a 0 s 0:13 0 0 0 hln 100 PAGENO=1
a 0 s 0:13 0 0 0 hln 100 PAGESIZE=A
a 0 s 0:13 0 0 0 hln 100 PAGECOUNT=1
@graphics
